*Heading
** Job name: Job_small Model name: Job-small
** Generated by: Abaqus/CAE 2023
*Preprint, echo=NO, model=NO, history=NO, contact=NO
**
** PARTS
**
*Part, name=P-CUBE
*Node
      1, -0.0149999997, -0.0149999997, -0.0149999997
      2, -0.00749999983, -0.0149999997, -0.0149999997
      3,           0., -0.0149999997, -0.0149999997
      4, 0.00749999983, -0.0149999997, -0.0149999997
      5, 0.0149999997, -0.0149999997, -0.0149999997
      6, -0.0149999997, -0.00749999983, -0.0149999997
      7, -0.00749999983, -0.00749999983, -0.0149999997
      8,           0., -0.00749999983, -0.0149999997
      9, 0.00749999983, -0.00749999983, -0.0149999997
     10, 0.0149999997, -0.00749999983, -0.0149999997
     11, -0.0149999997,           0., -0.0149999997
     12, -0.00749999983,           0., -0.0149999997
     13,           0.,           0., -0.0149999997
     14, 0.00749999983,           0., -0.0149999997
     15, 0.0149999997,           0., -0.0149999997
     16, -0.0149999997, 0.00749999983, -0.0149999997
     17, -0.00749999983, 0.00749999983, -0.0149999997
     18,           0., 0.00749999983, -0.0149999997
     19, 0.00749999983, 0.00749999983, -0.0149999997
     20, 0.0149999997, 0.00749999983, -0.0149999997
** ... 105 like lines cut
*Element, type=C3D8
 1,  27,   2,   1,  26,  32,   7,   6,  31
 2,  28,   3,   2,  27,  33,   8,   7,  32
 3,  29,   4,   3,  28,  34,   9,   8,  33
 4,  30,   5,   4,  29,  35,  10,   9,  34
 5,  32,   7,   6,  31,  37,  12,  11,  36
 6,  33,   8,   7,  32,  38,  13,  12,  37
 7,  34,   9,   8,  33,  39,  14,  13,  38
 8,  35,  10,   9,  34,  40,  15,  14,  39
 9,  37,  12,  11,  36,  42,  17,  16,  41
10,  38,  13,  12,  37,  43,  18,  17,  42
11,  39,  14,  13,  38,  44,  19,  18,  43
12,  40,  15,  14,  39,  45,  20,  19,  44
13,  42,  17,  16,  41,  47,  22,  21,  46
14,  43,  18,  17,  42,  48,  23,  22,  47
15,  44,  19,  18,  43,  49,  24,  23,  48
16,  45,  20,  19,  44,  50,  25,  24,  49
17,  52,  27,  26,  51,  57,  32,  31,  56
18,  53,  28,  27,  52,  58,  33,  32,  57
19,  54,  29,  28,  53,  59,  34,  33,  58
20,  55,  30,  29,  54,  60,  35,  34,  59
** ... 44 like lines cut
*Nset, nset=ALLNODES, generate
   1,  125,    1
*Elset, elset=ALLELEMENTS, generate
  1,  64,   1
*Elset, elset=GRAIN-1
 22,
*Elset, elset=GRAIN-2, generate
  8,  40,  16
*Elset, elset=GRAIN-3
  1,  2,  3,  4,  5,  6,  7,  9, 10, 11, 12, 13, 14, 15, 16, 17
 18, 19, 20, 21, 23, 25, 26, 27, 28, 29, 30, 31, 32, 33, 34, 35
 36, 37, 38, 39, 41, 42, 43, 44, 45, 46, 47, 48, 49, 50, 51, 52
 53, 54, 55, 56, 57, 58, 59, 60, 61, 62, 63, 64
*Nset, nset=NODES+1, generate
   5,  125,    5
*Nset, nset=NODES-1, generate
   1,  121,    5
*Nset, nset=NODES+2
  21,  22,  23,  24,  25,  46,  47,  48,  49,  50,  71,  72,  73,  74,  75,  96
  97,  98,  99, 100, 121, 122, 123, 124, 125
*Nset, nset=NODES-2
   1,   2,   3,   4,   5,  26,  27,  28,  29,  30,  51,  52,  53,  54,  55,  76
  77,  78,  79,  80, 101, 102, 103, 104, 105
*Nset, nset=NODES+3, generate
 101,  125,    1
*Nset, nset=NODES-3, generate
  1,  25,   1
** Section: Section-3-GRAIN-3
*Solid Section, elset=GRAIN-3, material=GRAIN-3
,
** Section: Section-2-GRAIN-2
*Solid Section, elset=GRAIN-2, material=GRAIN-2
,
** Section: Section-1-GRAIN-1
*Solid Section, elset=GRAIN-1, material=GRAIN-1
,
*End Part
**  
**
** ASSEMBLY
**
*Assembly, name=Assembly
**  
*Instance, name=I-CUBE, part=P-CUBE
*End Instance
**  
*Node
      1, 0.0149999997,           0.,           0.
      2,           0., 0.0149999997,           0.
      3,           0.,           0., 0.0149999997
*Nset, nset=ALLNODES, instance=I-CUBE, generate
   1,  125,    1
*Elset, elset=ALLNODES, instance=I-CUBE, generate
  1,  64,   1
*Nset, nset=NODES+1, instance=I-CUBE, generate
   5,  125,    5
*Nset, nset=NODES+2, instance=I-CUBE
  21,  22,  23,  24,  25,  46,  47,  48,  49,  50,  71,  72,  73,  74,  75,  96
  97,  98,  99, 100, 121, 122, 123, 124, 125
*Nset, nset=NODES+3, instance=I-CUBE, generate
 101,  125,    1
*Nset, nset=NODES-1, instance=I-CUBE, generate
   1,  121,    5
*Nset, nset=NODES-2, instance=I-CUBE
   1,   2,   3,   4,   5,  26,  27,  28,  29,  30,  51,  52,  53,  54,  55,  76
  77,  78,  79,  80, 101, 102, 103, 104, 105
*Nset, nset=NODES-3, instance=I-CUBE, generate
  1,  25,   1
*Nset, nset=N_1, instance=I-CUBE
 1,
*Nset, nset=N_2, instance=I-CUBE
 2,
*Nset, nset=N_3, instance=I-CUBE
 3,
*Nset, nset=N_4, instance=I-CUBE
 4,
*Nset, nset=N_5, instance=I-CUBE
 5,
*Nset, nset=N_6, instance=I-CUBE
 6,
*Nset, nset=N_7, instance=I-CUBE
 7,
*Nset, nset=N_8, instance=I-CUBE
 8,
*Nset, nset=N_9, instance=I-CUBE
 9,
*Nset, nset=N_10, instance=I-CUBE
 10,
*Nset, nset=N_11, instance=I-CUBE
 11,
*Nset, nset=N_12, instance=I-CUBE
 12,
*Nset, nset=N_13, instance=I-CUBE
 13,
*Nset, nset=N_14, instance=I-CUBE
 14,
*Nset, nset=N_15, instance=I-CUBE
 15,
*Nset, nset=N_16, instance=I-CUBE
 16,
*Nset, nset=N_17, instance=I-CUBE
 17,
*Nset, nset=N_18, instance=I-CUBE
 18,
*Nset, nset=N_19, instance=I-CUBE
 19,
*Nset, nset=N_20, instance=I-CUBE
** ... 211 like lines cut
*Nset, nset=N_RP1
 1,
*Nset, nset=N_RP2
 2,
*Nset, nset=N_RP3
 3,
*Nset, nset=N_RPALL, generate
 1,  3,  1
** Constraint: Eqn-1
*Equation
3
N_100, 3, 1.
N_96, 3, -1.
N_RP1, 3, -0.03
** Constraint: Eqn-2
*Equation
3
N_95, 3, 1.
N_91, 3, -1.
N_RP1, 3, -0.03
** Constraint: Eqn-3
*Equation
3
N_90, 3, 1.
N_86, 3, -1.
N_RP1, 3, -0.03
** Constraint: Eqn-4
*Equation
3
N_85, 3, 1.
N_81, 3, -1.
N_RP1, 3, -0.03
** Constraint: Eqn-5
*Equation
3
N_99, 3, 1.
N_79, 3, -1.
N_RP2, 3, -0.03
** Constraint: Eqn-6
*Equation
3
N_98, 3, 1.
N_78, 3, -1.
N_RP2, 3, -0.03
** Constraint: Eqn-7
*Equation
3
N_97, 3, 1.
N_77, 3, -1.
N_RP2, 3, -0.03
** Constraint: Eqn-8
*Equation
3
N_96, 3, 1.
N_76, 3, -1.
N_RP2, 3, -0.03
** Constraint: Eqn-9
*Equation
3
N_80, 3, 1.
N_76, 3, -1.
N_RP1, 3, -0.03
** Constraint: Eqn-10
*Equation
3
N_75, 3, 1.
N_71, 3, -1.
N_RP1, 3, -0.03
** Constraint: Eqn-11
*Equation
3
N_70, 3, 1.
N_66, 3, -1.
N_RP1, 3, -0.03
** Constraint: Eqn-12
*Equation
3
N_65, 3, 1.
N_61, 3, -1.
N_RP1, 3, -0.03
** Constraint: Eqn-13
*Equation
3
N_10, 3, 1.
N_6, 3, -1.
N_RP1, 3, -0.03
** Constraint: Eqn-14
*Equation
3
N_60, 3, 1.
N_56, 3, -1.
N_RP1, 3, -0.03
** Constraint: Eqn-15
*Equation
3
N_74, 3, 1.
N_54, 3, -1.
N_RP2, 3, -0.03
** Constraint: Eqn-16
*Equation
3
N_73, 3, 1.
N_53, 3, -1.
N_RP2, 3, -0.03
** Constraint: Eqn-17
*Equation
3
N_72, 3, 1.
N_52, 3, -1.
N_RP2, 3, -0.03
** Constraint: Eqn-18
*Equation
3
N_71, 3, 1.
N_51, 3, -1.
N_RP2, 3, -0.03
** Constraint: Eqn-19
*Equation
3
N_55, 3, 1.
N_51, 3, -1.
N_RP1, 3, -0.03
** Constraint: Eqn-20
*Equation
3
N_50, 3, 1.
N_46, 3, -1.
N_RP1, 3, -0.03
** Constraint: Eqn-21
*Equation
3
N_45, 3, 1.
N_41, 3, -1.
N_RP1, 3, -0.03
** Constraint: Eqn-22
*Equation
3
N_24, 3, 1.
N_4, 3, -1.
N_RP2, 3, -0.03
** Constraint: Eqn-23
*Equation
3
N_40, 3, 1.
N_36, 3, -1.
N_RP1, 3, -0.03
** Constraint: Eqn-24
*Equation
3
N_35, 3, 1.
N_31, 3, -1.
N_RP1, 3, -0.03
** Constraint: Eqn-25
*Equation
3
N_23, 3, 1.
N_3, 3, -1.
N_RP2, 3, -0.03
** Constraint: Eqn-26
*Equation
3
N_49, 3, 1.
N_29, 3, -1.
N_RP2, 3, -0.03
** Constraint: Eqn-27
*Equation
3
N_48, 3, 1.
N_28, 3, -1.
N_RP2, 3, -0.03
** Constraint: Eqn-28
*Equation
3
N_47, 3, 1.
N_27, 3, -1.
N_RP2, 3, -0.03
** Constraint: Eqn-29
*Equation
3
N_46, 3, 1.
N_26, 3, -1.
N_RP2, 3, -0.03
** Constraint: Eqn-30
*Equation
3
N_30, 3, 1.
N_26, 3, -1.
N_RP1, 3, -0.03
** Constraint: Eqn-31
*Equation
3
N_25, 3, 1.
N_21, 3, -1.
N_RP1, 3, -0.03
** Constraint: Eqn-32
*Equation
3
N_22, 3, 1.
N_2, 3, -1.
N_RP2, 3, -0.03
** Constraint: Eqn-33
*Equation
3
N_20, 3, 1.
N_16, 3, -1.
N_RP1, 3, -0.03
** Constraint: Eqn-34
*Equation
3
N_125, 3, 1.
N_121, 3, -1.
N_RP1, 3, -0.03
** Constraint: Eqn-35
*Equation
3
N_120, 3, 1.
N_116, 3, -1.
N_RP1, 3, -0.03
** Constraint: Eqn-36
*Equation
3
N_115, 3, 1.
N_111, 3, -1.
N_RP1, 3, -0.03
** Constraint: Eqn-37
*Equation
3
N_15, 3, 1.
N_11, 3, -1.
N_RP1, 3, -0.03
** Constraint: Eqn-38
*Equation
3
N_110, 3, 1.
N_106, 3, -1.
N_RP1, 3, -0.03
** Constraint: Eqn-39
*Equation
3
N_124, 3, 1.
N_104, 3, -1.
N_RP2, 3, -0.03
** Constraint: Eqn-40
*Equation
3
N_123, 3, 1.
N_103, 3, -1.
N_RP2, 3, -0.03
** Constraint: Eqn-41
*Equation
3
N_122, 3, 1.
N_102, 3, -1.
N_RP2, 3, -0.03
** Constraint: Eqn-42
*Equation
3
N_121, 3, 1.
N_101, 3, -1.
N_RP2, 3, -0.03
** Constraint: Eqn-43
*Equation
3
N_105, 3, 1.
N_101, 3, -1.
N_RP1, 3, -0.03
** Constraint: Eqn-44
*Equation
3
N_21, 3, 1.
N_1, 3, -1.
N_RP2, 3, -0.03
** Constraint: Eqn-45
*Equation
3
N_5, 3, 1.
N_1, 3, -1.
N_RP1, 3, -0.03
** Constraint: Eqn-46
*Equation
3
N_100, 2, 1.
N_96, 2, -1.
N_RP1, 2, -0.03
** Constraint: Eqn-47
*Equation
3
N_95, 2, 1.
N_91, 2, -1.
N_RP1, 2, -0.03
** Constraint: Eqn-48
*Equation
3
N_90, 2, 1.
N_86, 2, -1.
N_RP1, 2, -0.03
** Constraint: Eqn-49
*Equation
3
N_85, 2, 1.
N_81, 2, -1.
N_RP1, 2, -0.03
** Constraint: Eqn-50
*Equation
3
N_99, 2, 1.
N_79, 2, -1.
N_RP2, 2, -0.03
** Constraint: Eqn-51
*Equation
3
N_98, 2, 1.
N_78, 2, -1.
N_RP2, 2, -0.03
** Constraint: Eqn-52
*Equation
3
N_97, 2, 1.
N_77, 2, -1.
N_RP2, 2, -0.03
** Constraint: Eqn-53
*Equation
3
N_96, 2, 1.
N_76, 2, -1.
N_RP2, 2, -0.03
** Constraint: Eqn-54
*Equation
3
N_80, 2, 1.
N_76, 2, -1.
N_RP1, 2, -0.03
** Constraint: Eqn-55
*Equation
3
N_75, 2, 1.
N_71, 2, -1.
N_RP1, 2, -0.03
** Constraint: Eqn-56
*Equation
3
N_70, 2, 1.
N_66, 2, -1.
N_RP1, 2, -0.03
** Constraint: Eqn-57
*Equation
3
N_65, 2, 1.
N_61, 2, -1.
N_RP1, 2, -0.03
** Constraint: Eqn-58
*Equation
3
N_10, 2, 1.
N_6, 2, -1.
N_RP1, 2, -0.03
** Constraint: Eqn-59
*Equation
3
N_60, 2, 1.
N_56, 2, -1.
N_RP1, 2, -0.03
** Constraint: Eqn-60
*Equation
3
N_74, 2, 1.
N_54, 2, -1.
N_RP2, 2, -0.03
** Constraint: Eqn-61
*Equation
3
N_73, 2, 1.
N_53, 2, -1.
N_RP2, 2, -0.03
** Constraint: Eqn-62
*Equation
3
N_72, 2, 1.
N_52, 2, -1.
N_RP2, 2, -0.03
** Constraint: Eqn-63
*Equation
3
N_71, 2, 1.
N_51, 2, -1.
N_RP2, 2, -0.03
** Constraint: Eqn-64
*Equation
3
N_55, 2, 1.
N_51, 2, -1.
N_RP1, 2, -0.03
** Constraint: Eqn-65
*Equation
3
N_50, 2, 1.
N_46, 2, -1.
N_RP1, 2, -0.03
** Constraint: Eqn-66
*Equation
3
N_45, 2, 1.
N_41, 2, -1.
N_RP1, 2, -0.03
** Constraint: Eqn-67
*Equation
3
N_24, 2, 1.
N_4, 2, -1.
N_RP2, 2, -0.03
** Constraint: Eqn-68
*Equation
3
N_40, 2, 1.
N_36, 2, -1.
N_RP1, 2, -0.03
** Constraint: Eqn-69
*Equation
3
N_35, 2, 1.
N_31, 2, -1.
N_RP1, 2, -0.03
** Constraint: Eqn-70
*Equation
3
N_23, 2, 1.
N_3, 2, -1.
N_RP2, 2, -0.03
** Constraint: Eqn-71
*Equation
3
N_49, 2, 1.
N_29, 2, -1.
N_RP2, 2, -0.03
** Constraint: Eqn-72
*Equation
3
N_48, 2, 1.
N_28, 2, -1.
N_RP2, 2, -0.03
** Constraint: Eqn-73
*Equation
3
N_47, 2, 1.
N_27, 2, -1.
N_RP2, 2, -0.03
** Constraint: Eqn-74
*Equation
3
N_46, 2, 1.
N_26, 2, -1.
N_RP2, 2, -0.03
** Constraint: Eqn-75
*Equation
3
N_30, 2, 1.
N_26, 2, -1.
N_RP1, 2, -0.03
** Constraint: Eqn-76
*Equation
3
N_25, 2, 1.
N_21, 2, -1.
N_RP1, 2, -0.03
** Constraint: Eqn-77
*Equation
3
N_22, 2, 1.
N_2, 2, -1.
N_RP2, 2, -0.03
** Constraint: Eqn-78
*Equation
3
N_20, 2, 1.
N_16, 2, -1.
N_RP1, 2, -0.03
** Constraint: Eqn-79
*Equation
3
N_125, 2, 1.
N_121, 2, -1.
N_RP1, 2, -0.03
** Constraint: Eqn-80
*Equation
3
N_120, 2, 1.
N_116, 2, -1.
N_RP1, 2, -0.03
** Constraint: Eqn-81
*Equation
3
N_115, 2, 1.
N_111, 2, -1.
N_RP1, 2, -0.03
** Constraint: Eqn-82
*Equation
3
N_15, 2, 1.
N_11, 2, -1.
N_RP1, 2, -0.03
** Constraint: Eqn-83
*Equation
3
N_110, 2, 1.
N_106, 2, -1.
N_RP1, 2, -0.03
** Constraint: Eqn-84
*Equation
3
N_124, 2, 1.
N_104, 2, -1.
N_RP2, 2, -0.03
** Constraint: Eqn-85
*Equation
3
N_123, 2, 1.
N_103, 2, -1.
N_RP2, 2, -0.03
** Constraint: Eqn-86
*Equation
3
N_122, 2, 1.
N_102, 2, -1.
N_RP2, 2, -0.03
** Constraint: Eqn-87
*Equation
3
N_121, 2, 1.
N_101, 2, -1.
N_RP2, 2, -0.03
** Constraint: Eqn-88
*Equation
3
N_105, 2, 1.
N_101, 2, -1.
N_RP1, 2, -0.03
** Constraint: Eqn-89
*Equation
3
N_21, 2, 1.
N_1, 2, -1.
N_RP2, 2, -0.03
** Constraint: Eqn-90
*Equation
3
N_5, 2, 1.
N_1, 2, -1.
N_RP1, 2, -0.03
** Constraint: Eqn-91
*Equation
3
N_100, 1, 1.
N_96, 1, -1.
N_RP1, 1, -0.03
** Constraint: Eqn-92
*Equation
3
N_95, 1, 1.
N_91, 1, -1.
N_RP1, 1, -0.03
** Constraint: Eqn-93
*Equation
3
N_90, 1, 1.
N_86, 1, -1.
N_RP1, 1, -0.03
** Constraint: Eqn-94
*Equation
3
N_85, 1, 1.
N_81, 1, -1.
N_RP1, 1, -0.03
** Constraint: Eqn-95
*Equation
3
N_99, 1, 1.
N_79, 1, -1.
N_RP2, 1, -0.03
** Constraint: Eqn-96
*Equation
3
N_98, 1, 1.
N_78, 1, -1.
N_RP2, 1, -0.03
** Constraint: Eqn-97
*Equation
3
N_97, 1, 1.
N_77, 1, -1.
N_RP2, 1, -0.03
** Constraint: Eqn-98
*Equation
3
N_96, 1, 1.
N_76, 1, -1.
N_RP2, 1, -0.03
** Constraint: Eqn-99
*Equation
3
N_80, 1, 1.
N_76, 1, -1.
N_RP1, 1, -0.03
** Constraint: Eqn-100
*Equation
3
N_75, 1, 1.
N_71, 1, -1.
N_RP1, 1, -0.03
** Constraint: Eqn-101
*Equation
3
N_70, 1, 1.
N_66, 1, -1.
N_RP1, 1, -0.03
** Constraint: Eqn-102
*Equation
3
N_65, 1, 1.
N_61, 1, -1.
N_RP1, 1, -0.03
** Constraint: Eqn-103
*Equation
3
N_10, 1, 1.
N_6, 1, -1.
N_RP1, 1, -0.03
** Constraint: Eqn-104
*Equation
3
N_60, 1, 1.
N_56, 1, -1.
N_RP1, 1, -0.03
** Constraint: Eqn-105
*Equation
3
N_74, 1, 1.
N_54, 1, -1.
N_RP2, 1, -0.03
** Constraint: Eqn-106
*Equation
3
N_73, 1, 1.
N_53, 1, -1.
N_RP2, 1, -0.03
** Constraint: Eqn-107
*Equation
3
N_72, 1, 1.
N_52, 1, -1.
N_RP2, 1, -0.03
** Constraint: Eqn-108
*Equation
3
N_71, 1, 1.
N_51, 1, -1.
N_RP2, 1, -0.03
** Constraint: Eqn-109
*Equation
3
N_55, 1, 1.
N_51, 1, -1.
N_RP1, 1, -0.03
** Constraint: Eqn-110
*Equation
3
N_50, 1, 1.
N_46, 1, -1.
N_RP1, 1, -0.03
** Constraint: Eqn-111
*Equation
3
N_45, 1, 1.
N_41, 1, -1.
N_RP1, 1, -0.03
** Constraint: Eqn-112
*Equation
3
N_24, 1, 1.
N_4, 1, -1.
N_RP2, 1, -0.03
** Constraint: Eqn-113
*Equation
3
N_40, 1, 1.
N_36, 1, -1.
N_RP1, 1, -0.03
** Constraint: Eqn-114
*Equation
3
N_35, 1, 1.
N_31, 1, -1.
N_RP1, 1, -0.03
** Constraint: Eqn-115
*Equation
3
N_23, 1, 1.
N_3, 1, -1.
N_RP2, 1, -0.03
** Constraint: Eqn-116
*Equation
3
N_49, 1, 1.
N_29, 1, -1.
N_RP2, 1, -0.03
** Constraint: Eqn-117
*Equation
3
N_48, 1, 1.
N_28, 1, -1.
N_RP2, 1, -0.03
** Constraint: Eqn-118
*Equation
3
N_47, 1, 1.
N_27, 1, -1.
N_RP2, 1, -0.03
** Constraint: Eqn-119
*Equation
3
N_46, 1, 1.
N_26, 1, -1.
N_RP2, 1, -0.03
** Constraint: Eqn-120
*Equation
3
N_30, 1, 1.
N_26, 1, -1.
N_RP1, 1, -0.03
** Constraint: Eqn-121
*Equation
3
N_25, 1, 1.
N_21, 1, -1.
N_RP1, 1, -0.03
** Constraint: Eqn-122
*Equation
3
N_22, 1, 1.
N_2, 1, -1.
N_RP2, 1, -0.03
** Constraint: Eqn-123
*Equation
3
N_20, 1, 1.
N_16, 1, -1.
N_RP1, 1, -0.03
** Constraint: Eqn-124
*Equation
3
N_125, 1, 1.
N_121, 1, -1.
N_RP1, 1, -0.03
** Constraint: Eqn-125
*Equation
3
N_120, 1, 1.
N_116, 1, -1.
N_RP1, 1, -0.03
** Constraint: Eqn-126
*Equation
3
N_115, 1, 1.
N_111, 1, -1.
N_RP1, 1, -0.03
** Constraint: Eqn-127
*Equation
3
N_15, 1, 1.
N_11, 1, -1.
N_RP1, 1, -0.03
** Constraint: Eqn-128
*Equation
3
N_110, 1, 1.
N_106, 1, -1.
N_RP1, 1, -0.03
** Constraint: Eqn-129
*Equation
3
N_124, 1, 1.
N_104, 1, -1.
N_RP2, 1, -0.03
** Constraint: Eqn-130
*Equation
3
N_123, 1, 1.
N_103, 1, -1.
N_RP2, 1, -0.03
** Constraint: Eqn-131
*Equation
3
N_122, 1, 1.
N_102, 1, -1.
N_RP2, 1, -0.03
** Constraint: Eqn-132
*Equation
3
N_121, 1, 1.
N_101, 1, -1.
N_RP2, 1, -0.03
** Constraint: Eqn-133
*Equation
3
N_105, 1, 1.
N_101, 1, -1.
N_RP1, 1, -0.03
** Constraint: Eqn-134
*Equation
3
N_21, 1, 1.
N_1, 1, -1.
N_RP2, 1, -0.03
** Constraint: Eqn-135
*Equation
3
N_5, 1, 1.
N_1, 1, -1.
N_RP1, 1, -0.03
*End Assembly
*Amplitude, name=AMP-1
             0.,              0.,        0.042988,     0.000153726,       0.0859759,     0.000307452,        0.157643,     0.000608292
       0.229309,     0.000915687,        0.300976,       0.0012168,        0.370976,      0.00151936,        0.440976,       0.0018243
       0.510976,      0.00212447,        0.582643,      0.00243163,        0.654309,       0.0027315,        0.724309,      0.00303066
       0.795976,      0.00333076,        0.867643,      0.00363632,        0.939309,      0.00393706,         1.01098,      0.00424099
        1.08264,      0.00454262,         1.15598,      0.00484421,         1.22764,      0.00515166,         1.28431,       0.0053868
        1.30098,      0.00543381,         1.37264,      0.00508177,         1.44264,      0.00477836,         1.51764,       0.0044751
        1.58931,       0.0041701,         1.65764,      0.00386451,         1.72764,        0.003563,         1.79431,      0.00326088
        1.86431,      0.00295374,         1.93431,      0.00264746,         2.00598,      0.00234154,         2.07598,       0.0020392
        2.14931,      0.00173022,         2.22098,      0.00142963,         2.29264,      0.00112363,         2.36431,     0.000819881
        2.43598,     0.000518635,         2.50598,     0.000217362,         2.57764,     -8.3294e-05,         2.64931,    -0.000384894
        2.71931,    -0.000689517,         2.79098,    -0.000993123,         2.86264,     -0.00129825,         2.93264,     -0.00160311
        3.00431,     -0.00190634,         3.07598,     -0.00221001,         3.14764,     -0.00251417,         3.21764,     -0.00281702
        3.28931,     -0.00312426,         3.36264,     -0.00343049,         3.43431,     -0.00373313,         3.50598,     -0.00403935
        3.57764,     -0.00434271,         3.64931,     -0.00464457,         3.71931,     -0.00494621,         3.76764,     -0.00515153
        3.80264,     -0.00525897,         3.88431,     -0.00484582,         3.95264,     -0.00453711,         4.02764,      -0.0042316
        4.10264,     -0.00392701,         4.17431,     -0.00362238,         4.24264,      -0.0033141,         4.30931,     -0.00301167
        4.37764,     -0.00270787,         4.44598,     -0.00240312,         4.51764,     -0.00209719,         4.58764,     -0.00179654
        4.66098,     -0.00149091,         4.73264,     -0.00118773,         4.80598,    -0.000881516,         4.87764,     -0.00057546
        4.95098,    -0.000267785,         5.08931,     0.000305812,         5.16431,     0.000613996,         5.23431,     0.000918777
        5.30431,      0.00122078,         5.37598,      0.00152464,         5.44764,       0.0018243,         5.52098,      0.00213065
** ... 17 like lines cut
** 
** MATERIALS
** 
*Material, name=GRAIN-1
*Density
1.,
*Depvar
    200,
*User Material, constants=4
4., 4.92623, 1.81031, 2.83063
*Material, name=GRAIN-2
*Density
1.,
*Depvar
    200,
*User Material, constants=4
4.,  1.31303,  2.37775, 0.929929
*Material, name=GRAIN-3
*Density
1.,
*Depvar
    200,
*User Material, constants=4
4., 5.95798, 1.70273, 1.52886
*Time Points, name=TIMEPOINTS-1
0., 0.042988, 0.0859759, 0.157643, 0.229309, 0.300976, 0.370976, 0.440976
0.510976, 0.582643, 0.654309, 0.724309, 0.795976, 0.867643, 0.939309, 1.01098
1.08264, 1.15598, 1.22764, 1.28431, 1.30098, 1.37264, 1.44264, 1.51764
1.58931, 1.65764, 1.72764, 1.79431, 1.86431, 1.93431, 2.00598, 2.07598
2.14931, 2.22098, 2.29264, 2.36431, 2.43598, 2.50598, 2.57764, 2.64931
2.71931, 2.79098, 2.86264, 2.93264, 3.00431, 3.07598, 3.14764, 3.21764
3.28931, 3.36264, 3.43431, 3.50598, 3.57764, 3.64931, 3.71931, 3.76764
3.80264, 3.88431, 3.95264, 4.02764, 4.10264, 4.17431, 4.24264, 4.30931
4.37764, 4.44598, 4.51764, 4.58764, 4.66098, 4.73264, 4.80598, 4.87764
4.95098, 5.08931, 5.16431, 5.23431, 5.30431, 5.37598, 5.44764, 5.52098
5.59264, 5.66431, 5.73764, 5.80931, 5.88098, 5.95431, 6.02598, 6.09764
6.17098, 6.24431, 6.27931, 6.30598, 6.37764, 6.44931, 6.52431, 6.59598
6.66598, 6.73598, 6.80431, 6.87431, 6.94598, 7.01764, 7.09098, 7.16264
7.23431, 7.30598, 7.37931, 7.45098, 7.52264, 7.59598, 7.66764, 7.73931
7.81264, 7.88431, 7.95431, 8.02598, 8.09764, 8.16931, 8.24098, 8.31431
8.38598, 8.45764, 8.53098, 8.60264, 8.67431, 8.74598, 8.77931, 8.79931
8.87598, 8.94431, 9.01931, 9.09431, 9.16598, 9.23598, 9.30431, 9.37264
9.44264, 9.51431, 9.58431, 9.65598, 9.72931, 9.80098, 9.87264, 9.94598
10.0193, 10.0926, 10.1176
** 
** BOUNDARY CONDITIONS
** 
** Name: Disp-BC-1 Type: Displacement/Rotation
*Boundary
N_1, 1, 1
** Name: Disp-BC-2 Type: Displacement/Rotation
*Boundary
N_1, 2, 2
** Name: Disp-BC-3 Type: Displacement/Rotation
*Boundary
N_1, 3, 3
** Name: Disp-BC-4 Type: Displacement/Rotation
*Boundary
N_101, 2, 2
** ----------------------------------------------------------------
** 
** STEP: Step-1
** 
*Step, name=Step-1, nlgeom=YES, extrapolation=NO, inc=100000000
*Static
0.1, 10.1176, 1e-09, 1.
** 
** BOUNDARY CONDITIONS
** 
** Name: Disp-BC-5 Type: Displacement/Rotation
*Boundary, amplitude=AMP-1
N_RP2, 2, 2, 0.15
** 
** OUTPUT REQUESTS
** 
*Restart, write, frequency=0
** 
** FIELD OUTPUT: F-Output-1
** 
*Output, field, time points=TIMEPOINTS-1
*Node Output
COORD, 
*Element Output, directions=YES
COORD, LE, S, SDV, TEMP
** 
** FIELD OUTPUT: F-Output-3
** 
*Node Output, nset=N_RPALL
U, 
** 
** HISTORY OUTPUT: H-Output-1
** 
*Output, history, time points=TIMEPOINTS-1
*Node Output, nset=N_RPALL
RF1, RF2, RF3, U1, U2, U3
*End Step
